<?xml version="1.0" encoding="UTF-8"?>

<!-- generated on 2022-03-12 09:50:23 by Eclipse SUMO netedit Version 1.12.0
<configuration xmlns:xsi="http://www.w3.org/2001/XMLSchema-instance" xsi:noNamespaceSchemaLocation="http://sumo.dlr.de/xsd/netconvertConfiguration.xsd">

    <input>
        <sumo-net-file value="C:\Users\yangf\Desktop\sumo-tutorial-master\well.net.xml"/>
    </input>

    <output>
        <output-file value="C:\Users\yangf\Desktop\sumo-tutorial-master\well.net.xml"/>
    </output>

    <processing>
        <geometry.min-radius.fix.railways value="false"/>
        <geometry.max-grade.fix value="false"/>
        <offset.disable-normalization value="true"/>
        <lefthand value="false"/>
    </processing>

    <junctions>
        <no-turnarounds value="true"/>
        <junctions.corner-detail value="5"/>
        <junctions.limit-turn-speed value="5.5"/>
        <rectangular-lane-cut value="false"/>
    </junctions>

    <pedestrian>
        <walkingareas value="false"/>
    </pedestrian>

    <report>
        <aggregate-warnings value="5"/>
    </report>

</configuration>
-->

<net version="1.9" junctionCornerDetail="5" limitTurnSpeed="5.50" xmlns:xsi="http://www.w3.org/2001/XMLSchema-instance" xsi:noNamespaceSchemaLocation="http://sumo.dlr.de/xsd/net_file.xsd">

    <location netOffset="0.00,0.00" convBoundary="-100.00,-300.00,300.00,100.00" origBoundary="-10000000000.00,-10000000000.00,10000000000.00,10000000000.00" projParameter="!"/>

    <edge id=":J0_0" function="internal">
        <lane id=":J0_0_0" index="0" speed="6.51" length="9.03" shape="-11.20,16.80 -11.55,14.35 -12.60,12.60 -14.35,11.55 -16.80,11.20"/>
    </edge>
    <edge id=":J0_1" function="internal">
        <lane id=":J0_1_0" index="0" speed="13.89" length="33.60" shape="-11.20,16.80 -11.20,-16.80"/>
        <lane id=":J0_1_1" index="1" speed="13.89" length="33.60" shape="-8.00,16.80 -8.00,-16.80"/>
        <lane id=":J0_1_2" index="2" speed="13.89" length="33.60" shape="-4.80,16.80 -4.80,-16.80"/>
        <lane id=":J0_1_3" index="3" speed="13.89" length="33.60" shape="-1.60,16.80 -1.60,-16.80"/>
    </edge>
    <edge id=":J0_5" function="internal">
        <lane id=":J0_5_0" index="0" speed="11.36" length="13.36" shape="-1.60,16.80 -0.45,8.75 2.24,4.26"/>
    </edge>
    <edge id=":J0_29" function="internal">
        <lane id=":J0_29_0" index="0" speed="11.36" length="16.31" shape="2.24,4.26 3.00,3.00 8.75,-0.45 16.80,-1.60"/>
    </edge>
    <edge id=":J0_6" function="internal">
        <lane id=":J0_6_0" index="0" speed="6.51" length="9.03" shape="16.80,11.20 14.35,11.55 12.60,12.60 11.55,14.35 11.20,16.80"/>
        <lane id=":J0_6_1" index="1" speed="8.00" length="14.19" shape="16.80,8.00 12.95,8.55 10.20,10.20 8.55,12.95 8.00,16.80"/>
    </edge>
    <edge id=":J0_8" function="internal">
        <lane id=":J0_8_0" index="0" speed="13.89" length="33.70" shape="16.80,8.00 6.80,8.50 0.00,9.60 -6.80,10.70 -16.80,11.20"/>
        <lane id=":J0_8_1" index="1" speed="13.89" length="33.70" shape="16.80,8.00 -16.80,8.00"/>
        <lane id=":J0_8_2" index="2" speed="13.89" length="33.70" shape="16.80,4.80 -16.80,4.80"/>
        <lane id=":J0_8_3" index="3" speed="13.89" length="33.70" shape="16.80,4.80 6.80,4.30 0.00,3.20 -6.80,2.10 -16.80,1.60"/>
    </edge>
    <edge id=":J0_12" function="internal">
        <lane id=":J0_12_0" index="0" speed="12.28" length="34.84" shape="16.80,4.80 7.35,3.45 0.60,-0.60 -3.45,-7.35 -4.80,-16.80"/>
        <lane id=":J0_12_1" index="1" speed="11.36" length="29.67" shape="16.80,1.60 8.75,0.45 3.00,-3.00 -0.45,-8.75 -1.60,-16.80"/>
    </edge>
    <edge id=":J0_14" function="internal">
        <lane id=":J0_14_0" index="0" speed="6.33" length="18.69" shape="16.80,1.60 12.00,-1.60 10.40,-4.80 12.00,-8.00 16.80,-11.20"/>
    </edge>
    <edge id=":J0_15" function="internal">
        <lane id=":J0_15_0" index="0" speed="6.51" length="9.03" shape="11.20,-16.80 11.55,-14.35 12.60,-12.60 14.35,-11.55 16.80,-11.20"/>
    </edge>
    <edge id=":J0_16" function="internal">
        <lane id=":J0_16_0" index="0" speed="13.89" length="33.60" shape="11.20,-16.80 11.20,16.80"/>
        <lane id=":J0_16_1" index="1" speed="13.89" length="33.60" shape="8.00,-16.80 8.00,16.80"/>
        <lane id=":J0_16_2" index="2" speed="13.89" length="33.60" shape="4.80,-16.80 4.80,16.80"/>
    </edge>
    <edge id=":J0_19" function="internal">
        <lane id=":J0_19_0" index="0" speed="11.36" length="5.01" shape="1.60,-16.80 0.89,-11.84"/>
    </edge>
    <edge id=":J0_20" function="internal">
        <lane id=":J0_20_0" index="0" speed="6.33" length="1.53" shape="1.60,-16.80 0.75,-15.52"/>
    </edge>
    <edge id=":J0_30" function="internal">
        <lane id=":J0_30_0" index="0" speed="11.36" length="24.66" shape="0.89,-11.84 0.45,-8.75 -3.00,-3.00 -8.75,0.45 -16.80,1.60"/>
    </edge>
    <edge id=":J0_31" function="internal">
        <lane id=":J0_31_0" index="0" speed="6.33" length="17.16" shape="0.75,-15.52 -1.60,-12.00 -4.80,-10.40 -8.00,-12.00 -11.20,-16.80"/>
    </edge>
    <edge id=":J0_21" function="internal">
        <lane id=":J0_21_0" index="0" speed="6.51" length="9.03" shape="-16.80,-11.20 -14.35,-11.55 -12.60,-12.60 -11.55,-14.35 -11.20,-16.80"/>
        <lane id=":J0_21_1" index="1" speed="8.00" length="14.19" shape="-16.80,-8.00 -12.95,-8.55 -10.20,-10.20 -8.55,-12.95 -8.00,-16.80"/>
    </edge>
    <edge id=":J0_23" function="internal">
        <lane id=":J0_23_0" index="0" speed="13.89" length="33.70" shape="-16.80,-8.00 -6.80,-8.50 0.00,-9.60 6.80,-10.70 16.80,-11.20"/>
        <lane id=":J0_23_1" index="1" speed="13.89" length="33.70" shape="-16.80,-8.00 16.80,-8.00"/>
        <lane id=":J0_23_2" index="2" speed="13.89" length="33.70" shape="-16.80,-4.80 16.80,-4.80"/>
        <lane id=":J0_23_3" index="3" speed="13.89" length="33.70" shape="-16.80,-4.80 -6.80,-4.30 0.00,-3.20 6.80,-2.10 16.80,-1.60"/>
    </edge>
    <edge id=":J0_27" function="internal">
        <lane id=":J0_27_0" index="0" speed="12.28" length="34.84" shape="-16.80,-4.80 -7.35,-3.45 -0.60,0.60 3.45,7.35 4.80,16.80"/>
        <lane id=":J0_27_1" index="1" speed="11.36" length="29.67" shape="-16.80,-1.60 -8.75,-0.45 -3.00,3.00 0.45,8.75 1.60,16.80"/>
    </edge>
    <edge id=":J1_0" function="internal">
        <lane id=":J1_0_0" index="0" speed="6.51" length="9.03" shape="188.80,16.80 188.45,14.35 187.40,12.60 185.65,11.55 183.20,11.20"/>
    </edge>
    <edge id=":J1_1" function="internal">
        <lane id=":J1_1_0" index="0" speed="13.89" length="33.60" shape="188.80,16.80 188.80,-16.80"/>
        <lane id=":J1_1_1" index="1" speed="13.89" length="33.60" shape="192.00,16.80 192.00,-16.80"/>
        <lane id=":J1_1_2" index="2" speed="13.89" length="33.60" shape="195.20,16.80 195.20,-16.80"/>
        <lane id=":J1_1_3" index="3" speed="13.89" length="33.60" shape="198.40,16.80 198.40,-16.80"/>
    </edge>
    <edge id=":J1_5" function="internal">
        <lane id=":J1_5_0" index="0" speed="11.36" length="13.36" shape="198.40,16.80 199.55,8.75 202.24,4.26"/>
    </edge>
    <edge id=":J1_29" function="internal">
        <lane id=":J1_29_0" index="0" speed="11.36" length="16.31" shape="202.24,4.26 203.00,3.00 208.75,-0.45 216.80,-1.60"/>
    </edge>
    <edge id=":J1_6" function="internal">
        <lane id=":J1_6_0" index="0" speed="6.51" length="9.03" shape="216.80,11.20 214.35,11.55 212.60,12.60 211.55,14.35 211.20,16.80"/>
        <lane id=":J1_6_1" index="1" speed="8.00" length="14.19" shape="216.80,8.00 212.95,8.55 210.20,10.20 208.55,12.95 208.00,16.80"/>
    </edge>
    <edge id=":J1_8" function="internal">
        <lane id=":J1_8_0" index="0" speed="13.89" length="33.70" shape="216.80,8.00 206.80,8.50 200.00,9.60 193.20,10.70 183.20,11.20"/>
        <lane id=":J1_8_1" index="1" speed="13.89" length="33.70" shape="216.80,8.00 183.20,8.00"/>
        <lane id=":J1_8_2" index="2" speed="13.89" length="33.70" shape="216.80,4.80 183.20,4.80"/>
        <lane id=":J1_8_3" index="3" speed="13.89" length="33.70" shape="216.80,4.80 206.80,4.30 200.00,3.20 193.20,2.10 183.20,1.60"/>
    </edge>
    <edge id=":J1_12" function="internal">
        <lane id=":J1_12_0" index="0" speed="12.28" length="34.84" shape="216.80,4.80 207.35,3.45 200.60,-0.60 196.55,-7.35 195.20,-16.80"/>
        <lane id=":J1_12_1" index="1" speed="11.36" length="29.67" shape="216.80,1.60 208.75,0.45 203.00,-3.00 199.55,-8.75 198.40,-16.80"/>
    </edge>
    <edge id=":J1_14" function="internal">
        <lane id=":J1_14_0" index="0" speed="6.51" length="9.03" shape="211.20,-16.80 211.55,-14.35 212.60,-12.60 214.35,-11.55 216.80,-11.20"/>
    </edge>
    <edge id=":J1_15" function="internal">
        <lane id=":J1_15_0" index="0" speed="13.89" length="33.60" shape="211.20,-16.80 211.20,16.80"/>
        <lane id=":J1_15_1" index="1" speed="13.89" length="33.60" shape="208.00,-16.80 208.00,16.80"/>
        <lane id=":J1_15_2" index="2" speed="13.89" length="33.60" shape="204.80,-16.80 204.80,16.80"/>
    </edge>
    <edge id=":J1_18" function="internal">
        <lane id=":J1_18_0" index="0" speed="11.36" length="5.01" shape="201.60,-16.80 200.89,-11.84"/>
    </edge>
    <edge id=":J1_19" function="internal">
        <lane id=":J1_19_0" index="0" speed="6.33" length="1.53" shape="201.60,-16.80 200.75,-15.52"/>
    </edge>
    <edge id=":J1_30" function="internal">
        <lane id=":J1_30_0" index="0" speed="11.36" length="24.66" shape="200.89,-11.84 200.45,-8.75 197.00,-3.00 191.25,0.45 183.20,1.60"/>
    </edge>
    <edge id=":J1_31" function="internal">
        <lane id=":J1_31_0" index="0" speed="6.33" length="17.16" shape="200.75,-15.52 198.40,-12.00 195.20,-10.40 192.00,-12.00 188.80,-16.80"/>
    </edge>
    <edge id=":J1_20" function="internal">
        <lane id=":J1_20_0" index="0" speed="6.51" length="9.03" shape="183.20,-11.20 185.65,-11.55 187.40,-12.60 188.45,-14.35 188.80,-16.80"/>
        <lane id=":J1_20_1" index="1" speed="8.00" length="14.19" shape="183.20,-8.00 187.05,-8.55 189.80,-10.20 191.45,-12.95 192.00,-16.80"/>
    </edge>
    <edge id=":J1_22" function="internal">
        <lane id=":J1_22_0" index="0" speed="13.89" length="33.70" shape="183.20,-8.00 193.20,-8.50 200.00,-9.60 206.80,-10.70 216.80,-11.20"/>
        <lane id=":J1_22_1" index="1" speed="13.89" length="33.70" shape="183.20,-8.00 216.80,-8.00"/>
        <lane id=":J1_22_2" index="2" speed="13.89" length="33.70" shape="183.20,-4.80 216.80,-4.80"/>
        <lane id=":J1_22_3" index="3" speed="13.89" length="33.70" shape="183.20,-4.80 193.20,-4.30 200.00,-3.20 206.80,-2.10 216.80,-1.60"/>
    </edge>
    <edge id=":J1_26" function="internal">
        <lane id=":J1_26_0" index="0" speed="12.28" length="34.84" shape="183.20,-4.80 192.65,-3.45 199.40,0.60 203.45,7.35 204.80,16.80"/>
        <lane id=":J1_26_1" index="1" speed="11.36" length="29.67" shape="183.20,-1.60 191.25,-0.45 197.00,3.00 200.45,8.75 201.60,16.80"/>
    </edge>
    <edge id=":J1_28" function="internal">
        <lane id=":J1_28_0" index="0" speed="6.33" length="18.69" shape="183.20,-1.60 188.00,1.60 189.60,4.80 188.00,8.00 183.20,11.20"/>
    </edge>
    <edge id=":J2_0" function="internal">
        <lane id=":J2_0_0" index="0" speed="6.51" length="9.03" shape="188.80,-183.20 188.45,-185.65 187.40,-187.40 185.65,-188.45 183.20,-188.80"/>
    </edge>
    <edge id=":J2_1" function="internal">
        <lane id=":J2_1_0" index="0" speed="13.89" length="33.60" shape="188.80,-183.20 188.80,-216.80"/>
        <lane id=":J2_1_1" index="1" speed="13.89" length="33.60" shape="192.00,-183.20 192.00,-216.80"/>
        <lane id=":J2_1_2" index="2" speed="13.89" length="33.60" shape="195.20,-183.20 195.20,-216.80"/>
    </edge>
    <edge id=":J2_4" function="internal">
        <lane id=":J2_4_0" index="0" speed="11.36" length="5.01" shape="198.40,-183.20 199.11,-188.16"/>
    </edge>
    <edge id=":J2_5" function="internal">
        <lane id=":J2_5_0" index="0" speed="6.33" length="1.53" shape="198.40,-183.20 199.25,-184.48"/>
    </edge>
    <edge id=":J2_29" function="internal">
        <lane id=":J2_29_0" index="0" speed="11.36" length="24.66" shape="199.11,-188.16 199.55,-191.25 203.00,-197.00 208.75,-200.45 216.80,-201.60"/>
    </edge>
    <edge id=":J2_30" function="internal">
        <lane id=":J2_30_0" index="0" speed="6.33" length="17.16" shape="199.25,-184.48 201.60,-188.00 204.80,-189.60 208.00,-188.00 211.20,-183.20"/>
    </edge>
    <edge id=":J2_6" function="internal">
        <lane id=":J2_6_0" index="0" speed="6.51" length="9.03" shape="216.80,-188.80 214.35,-188.45 212.60,-187.40 211.55,-185.65 211.20,-183.20"/>
        <lane id=":J2_6_1" index="1" speed="8.00" length="14.19" shape="216.80,-192.00 212.95,-191.45 210.20,-189.80 208.55,-187.05 208.00,-183.20"/>
    </edge>
    <edge id=":J2_8" function="internal">
        <lane id=":J2_8_0" index="0" speed="13.89" length="33.70" shape="216.80,-192.00 206.80,-191.50 200.00,-190.40 193.20,-189.30 183.20,-188.80"/>
        <lane id=":J2_8_1" index="1" speed="13.89" length="33.70" shape="216.80,-192.00 183.20,-192.00"/>
        <lane id=":J2_8_2" index="2" speed="13.89" length="33.70" shape="216.80,-195.20 183.20,-195.20"/>
        <lane id=":J2_8_3" index="3" speed="13.89" length="33.70" shape="216.80,-195.20 206.80,-195.70 200.00,-196.80 193.20,-197.90 183.20,-198.40"/>
    </edge>
    <edge id=":J2_12" function="internal">
        <lane id=":J2_12_0" index="0" speed="12.28" length="34.84" shape="216.80,-195.20 207.35,-196.55 200.60,-200.60 196.55,-207.35 195.20,-216.80"/>
        <lane id=":J2_12_1" index="1" speed="11.36" length="29.67" shape="216.80,-198.40 208.75,-199.55 203.00,-203.00 199.55,-208.75 198.40,-216.80"/>
    </edge>
    <edge id=":J2_14" function="internal">
        <lane id=":J2_14_0" index="0" speed="6.51" length="9.03" shape="211.20,-216.80 211.55,-214.35 212.60,-212.60 214.35,-211.55 216.80,-211.20"/>
    </edge>
    <edge id=":J2_15" function="internal">
        <lane id=":J2_15_0" index="0" speed="13.89" length="33.60" shape="211.20,-216.80 211.20,-183.20"/>
        <lane id=":J2_15_1" index="1" speed="13.89" length="33.60" shape="208.00,-216.80 208.00,-183.20"/>
        <lane id=":J2_15_2" index="2" speed="13.89" length="33.60" shape="204.80,-216.80 204.80,-183.20"/>
        <lane id=":J2_15_3" index="3" speed="13.89" length="33.60" shape="201.60,-216.80 201.60,-183.20"/>
    </edge>
    <edge id=":J2_19" function="internal">
        <lane id=":J2_19_0" index="0" speed="11.36" length="13.36" shape="201.60,-216.80 200.45,-208.75 197.76,-204.26"/>
    </edge>
    <edge id=":J2_31" function="internal">
        <lane id=":J2_31_0" index="0" speed="11.36" length="16.31" shape="197.76,-204.26 197.00,-203.00 191.25,-199.55 183.20,-198.40"/>
    </edge>
    <edge id=":J2_20" function="internal">
        <lane id=":J2_20_0" index="0" speed="6.51" length="9.03" shape="183.20,-211.20 185.65,-211.55 187.40,-212.60 188.45,-214.35 188.80,-216.80"/>
        <lane id=":J2_20_1" index="1" speed="8.00" length="14.19" shape="183.20,-208.00 187.05,-208.55 189.80,-210.20 191.45,-212.95 192.00,-216.80"/>
    </edge>
    <edge id=":J2_22" function="internal">
        <lane id=":J2_22_0" index="0" speed="13.89" length="33.70" shape="183.20,-208.00 193.20,-208.50 200.00,-209.60 206.80,-210.70 216.80,-211.20"/>
        <lane id=":J2_22_1" index="1" speed="13.89" length="33.70" shape="183.20,-208.00 216.80,-208.00"/>
        <lane id=":J2_22_2" index="2" speed="13.89" length="33.70" shape="183.20,-204.80 216.80,-204.80"/>
        <lane id=":J2_22_3" index="3" speed="13.89" length="33.70" shape="183.20,-204.80 193.20,-204.30 200.00,-203.20 206.80,-202.10 216.80,-201.60"/>
    </edge>
    <edge id=":J2_26" function="internal">
        <lane id=":J2_26_0" index="0" speed="12.28" length="34.84" shape="183.20,-204.80 192.65,-203.45 199.40,-199.40 203.45,-192.65 204.80,-183.20"/>
        <lane id=":J2_26_1" index="1" speed="11.36" length="29.67" shape="183.20,-201.60 191.25,-200.45 197.00,-197.00 200.45,-191.25 201.60,-183.20"/>
    </edge>
    <edge id=":J2_28" function="internal">
        <lane id=":J2_28_0" index="0" speed="6.33" length="18.69" shape="183.20,-201.60 188.00,-198.40 189.60,-195.20 188.00,-192.00 183.20,-188.80"/>
    </edge>
    <edge id=":J3_0" function="internal">
        <lane id=":J3_0_0" index="0" speed="6.51" length="9.03" shape="-11.20,-183.20 -11.55,-185.65 -12.60,-187.40 -14.35,-188.45 -16.80,-188.80"/>
    </edge>
    <edge id=":J3_1" function="internal">
        <lane id=":J3_1_0" index="0" speed="13.89" length="33.60" shape="-11.20,-183.20 -11.20,-216.80"/>
        <lane id=":J3_1_1" index="1" speed="13.89" length="33.60" shape="-8.00,-183.20 -8.00,-216.80"/>
        <lane id=":J3_1_2" index="2" speed="13.89" length="33.60" shape="-4.80,-183.20 -4.80,-216.80"/>
    </edge>
    <edge id=":J3_4" function="internal">
        <lane id=":J3_4_0" index="0" speed="11.36" length="5.01" shape="-1.60,-183.20 -0.89,-188.16"/>
    </edge>
    <edge id=":J3_5" function="internal">
        <lane id=":J3_5_0" index="0" speed="6.33" length="1.53" shape="-1.60,-183.20 -0.75,-184.48"/>
    </edge>
    <edge id=":J3_29" function="internal">
        <lane id=":J3_29_0" index="0" speed="11.36" length="24.66" shape="-0.89,-188.16 -0.45,-191.25 3.00,-197.00 8.75,-200.45 16.80,-201.60"/>
    </edge>
    <edge id=":J3_30" function="internal">
        <lane id=":J3_30_0" index="0" speed="6.33" length="17.16" shape="-0.75,-184.48 1.60,-188.00 4.80,-189.60 8.00,-188.00 11.20,-183.20"/>
    </edge>
    <edge id=":J3_6" function="internal">
        <lane id=":J3_6_0" index="0" speed="6.51" length="9.03" shape="16.80,-188.80 14.35,-188.45 12.60,-187.40 11.55,-185.65 11.20,-183.20"/>
        <lane id=":J3_6_1" index="1" speed="8.00" length="14.19" shape="16.80,-192.00 12.95,-191.45 10.20,-189.80 8.55,-187.05 8.00,-183.20"/>
    </edge>
    <edge id=":J3_8" function="internal">
        <lane id=":J3_8_0" index="0" speed="13.89" length="33.70" shape="16.80,-192.00 6.80,-191.50 0.00,-190.40 -6.80,-189.30 -16.80,-188.80"/>
        <lane id=":J3_8_1" index="1" speed="13.89" length="33.70" shape="16.80,-192.00 -16.80,-192.00"/>
        <lane id=":J3_8_2" index="2" speed="13.89" length="33.70" shape="16.80,-195.20 -16.80,-195.20"/>
        <lane id=":J3_8_3" index="3" speed="13.89" length="33.70" shape="16.80,-195.20 6.80,-195.70 0.00,-196.80 -6.80,-197.90 -16.80,-198.40"/>
    </edge>
    <edge id=":J3_12" function="internal">
        <lane id=":J3_12_0" index="0" speed="12.28" length="34.84" shape="16.80,-195.20 7.35,-196.55 0.60,-200.60 -3.45,-207.35 -4.80,-216.80"/>
        <lane id=":J3_12_1" index="1" speed="11.36" length="29.67" shape="16.80,-198.40 8.75,-199.55 3.00,-203.00 -0.45,-208.75 -1.60,-216.80"/>
    </edge>
    <edge id=":J3_14" function="internal">
        <lane id=":J3_14_0" index="0" speed="6.33" length="18.69" shape="16.80,-198.40 12.00,-201.60 10.40,-204.80 12.00,-208.00 16.80,-211.20"/>
    </edge>
    <edge id=":J3_15" function="internal">
        <lane id=":J3_15_0" index="0" speed="6.51" length="9.03" shape="11.20,-216.80 11.55,-214.35 12.60,-212.60 14.35,-211.55 16.80,-211.20"/>
    </edge>
    <edge id=":J3_16" function="internal">
        <lane id=":J3_16_0" index="0" speed="13.89" length="33.60" shape="11.20,-216.80 11.20,-183.20"/>
        <lane id=":J3_16_1" index="1" speed="13.89" length="33.60" shape="8.00,-216.80 8.00,-183.20"/>
        <lane id=":J3_16_2" index="2" speed="13.89" length="33.60" shape="4.80,-216.80 4.80,-183.20"/>
        <lane id=":J3_16_3" index="3" speed="13.89" length="33.60" shape="1.60,-216.80 1.60,-183.20"/>
    </edge>
    <edge id=":J3_20" function="internal">
        <lane id=":J3_20_0" index="0" speed="11.36" length="13.36" shape="1.60,-216.80 0.45,-208.75 -2.24,-204.26"/>
    </edge>
    <edge id=":J3_31" function="internal">
        <lane id=":J3_31_0" index="0" speed="11.36" length="16.31" shape="-2.24,-204.26 -3.00,-203.00 -8.75,-199.55 -16.80,-198.40"/>
    </edge>
    <edge id=":J3_21" function="internal">
        <lane id=":J3_21_0" index="0" speed="6.51" length="9.03" shape="-16.80,-211.20 -14.35,-211.55 -12.60,-212.60 -11.55,-214.35 -11.20,-216.80"/>
        <lane id=":J3_21_1" index="1" speed="8.00" length="14.19" shape="-16.80,-208.00 -12.95,-208.55 -10.20,-210.20 -8.55,-212.95 -8.00,-216.80"/>
    </edge>
    <edge id=":J3_23" function="internal">
        <lane id=":J3_23_0" index="0" speed="13.89" length="33.70" shape="-16.80,-208.00 -6.80,-208.50 0.00,-209.60 6.80,-210.70 16.80,-211.20"/>
        <lane id=":J3_23_1" index="1" speed="13.89" length="33.70" shape="-16.80,-208.00 16.80,-208.00"/>
        <lane id=":J3_23_2" index="2" speed="13.89" length="33.70" shape="-16.80,-204.80 16.80,-204.80"/>
        <lane id=":J3_23_3" index="3" speed="13.89" length="33.70" shape="-16.80,-204.80 -6.80,-204.30 0.00,-203.20 6.80,-202.10 16.80,-201.60"/>
    </edge>
    <edge id=":J3_27" function="internal">
        <lane id=":J3_27_0" index="0" speed="12.28" length="34.84" shape="-16.80,-204.80 -7.35,-203.45 -0.60,-199.40 3.45,-192.65 4.80,-183.20"/>
        <lane id=":J3_27_1" index="1" speed="11.36" length="29.67" shape="-16.80,-201.60 -8.75,-200.45 -3.00,-197.00 0.45,-191.25 1.60,-183.20"/>
    </edge>

    <edge id="-E0" from="J1" to="J0" priority="-1">
        <lane id="-E0_0" index="0" speed="13.89" length="166.40" shape="183.20,11.20 16.80,11.20"/>
        <lane id="-E0_1" index="1" speed="13.89" length="166.40" shape="183.20,8.00 16.80,8.00"/>
        <lane id="-E0_2" index="2" speed="13.89" length="166.40" shape="183.20,4.80 16.80,4.80"/>
        <lane id="-E0_3" index="3" speed="13.89" length="166.40" shape="183.20,1.60 16.80,1.60"/>
    </edge>
    <edge id="-E1" from="J2" to="J1" priority="-1">
        <lane id="-E1_0" index="0" speed="13.89" length="166.40" shape="211.20,-183.20 211.20,-16.80"/>
        <lane id="-E1_1" index="1" speed="13.89" length="166.40" shape="208.00,-183.20 208.00,-16.80"/>
        <lane id="-E1_2" index="2" speed="13.89" length="166.40" shape="204.80,-183.20 204.80,-16.80"/>
        <lane id="-E1_3" index="3" speed="13.89" length="166.40" shape="201.60,-183.20 201.60,-16.80"/>
    </edge>
    <edge id="-E10" from="J10" to="J2" priority="-1">
        <lane id="-E10_0" index="0" speed="13.89" length="83.20" shape="211.20,-300.00 211.20,-216.80"/>
        <lane id="-E10_1" index="1" speed="13.89" length="83.20" shape="208.00,-300.00 208.00,-216.80"/>
        <lane id="-E10_2" index="2" speed="13.89" length="83.20" shape="204.80,-300.00 204.80,-216.80"/>
        <lane id="-E10_3" index="3" speed="13.89" length="83.20" shape="201.60,-300.00 201.60,-216.80"/>
    </edge>
    <edge id="-E11" from="J11" to="J2" priority="-1">
        <lane id="-E11_0" index="0" speed="13.89" length="83.20" shape="300.00,-188.80 216.80,-188.80"/>
        <lane id="-E11_1" index="1" speed="13.89" length="83.20" shape="300.00,-192.00 216.80,-192.00"/>
        <lane id="-E11_2" index="2" speed="13.89" length="83.20" shape="300.00,-195.20 216.80,-195.20"/>
        <lane id="-E11_3" index="3" speed="13.89" length="83.20" shape="300.00,-198.40 216.80,-198.40"/>
    </edge>
    <edge id="-E2" from="J3" to="J2" priority="-1">
        <lane id="-E2_0" index="0" speed="13.89" length="166.40" shape="16.80,-211.20 183.20,-211.20"/>
        <lane id="-E2_1" index="1" speed="13.89" length="166.40" shape="16.80,-208.00 183.20,-208.00"/>
        <lane id="-E2_2" index="2" speed="13.89" length="166.40" shape="16.80,-204.80 183.20,-204.80"/>
        <lane id="-E2_3" index="3" speed="13.89" length="166.40" shape="16.80,-201.60 183.20,-201.60"/>
    </edge>
    <edge id="-E3" from="J0" to="J3" priority="-1">
        <lane id="-E3_0" index="0" speed="13.89" length="166.40" shape="-11.20,-16.80 -11.20,-183.20"/>
        <lane id="-E3_1" index="1" speed="13.89" length="166.40" shape="-8.00,-16.80 -8.00,-183.20"/>
        <lane id="-E3_2" index="2" speed="13.89" length="166.40" shape="-4.80,-16.80 -4.80,-183.20"/>
        <lane id="-E3_3" index="3" speed="13.89" length="166.40" shape="-1.60,-16.80 -1.60,-183.20"/>
    </edge>
    <edge id="-E4" from="J4" to="J0" priority="-1">
        <lane id="-E4_0" index="0" speed="13.89" length="83.20" shape="-11.20,100.00 -11.20,16.80"/>
        <lane id="-E4_1" index="1" speed="13.89" length="83.20" shape="-8.00,100.00 -8.00,16.80"/>
        <lane id="-E4_2" index="2" speed="13.89" length="83.20" shape="-4.80,100.00 -4.80,16.80"/>
        <lane id="-E4_3" index="3" speed="13.89" length="83.20" shape="-1.60,100.00 -1.60,16.80"/>
    </edge>
    <edge id="-E5" from="J5" to="J0" priority="-1">
        <lane id="-E5_0" index="0" speed="13.89" length="83.20" shape="-100.00,-11.20 -16.80,-11.20"/>
        <lane id="-E5_1" index="1" speed="13.89" length="83.20" shape="-100.00,-8.00 -16.80,-8.00"/>
        <lane id="-E5_2" index="2" speed="13.89" length="83.20" shape="-100.00,-4.80 -16.80,-4.80"/>
        <lane id="-E5_3" index="3" speed="13.89" length="83.20" shape="-100.00,-1.60 -16.80,-1.60"/>
    </edge>
    <edge id="-E6" from="J6" to="J3" priority="-1">
        <lane id="-E6_0" index="0" speed="13.89" length="83.20" shape="-100.00,-211.20 -16.80,-211.20"/>
        <lane id="-E6_1" index="1" speed="13.89" length="83.20" shape="-100.00,-208.00 -16.80,-208.00"/>
        <lane id="-E6_2" index="2" speed="13.89" length="83.20" shape="-100.00,-204.80 -16.80,-204.80"/>
        <lane id="-E6_3" index="3" speed="13.89" length="83.20" shape="-100.00,-201.60 -16.80,-201.60"/>
    </edge>
    <edge id="-E7" from="J7" to="J3" priority="-1">
        <lane id="-E7_0" index="0" speed="13.89" length="83.20" shape="11.20,-300.00 11.20,-216.80"/>
        <lane id="-E7_1" index="1" speed="13.89" length="83.20" shape="8.00,-300.00 8.00,-216.80"/>
        <lane id="-E7_2" index="2" speed="13.89" length="83.20" shape="4.80,-300.00 4.80,-216.80"/>
        <lane id="-E7_3" index="3" speed="13.89" length="83.20" shape="1.60,-300.00 1.60,-216.80"/>
    </edge>
    <edge id="-E8" from="J8" to="J1" priority="-1">
        <lane id="-E8_0" index="0" speed="13.89" length="83.20" shape="188.80,100.00 188.80,16.80"/>
        <lane id="-E8_1" index="1" speed="13.89" length="83.20" shape="192.00,100.00 192.00,16.80"/>
        <lane id="-E8_2" index="2" speed="13.89" length="83.20" shape="195.20,100.00 195.20,16.80"/>
        <lane id="-E8_3" index="3" speed="13.89" length="83.20" shape="198.40,100.00 198.40,16.80"/>
    </edge>
    <edge id="-E9" from="J9" to="J1" priority="-1">
        <lane id="-E9_0" index="0" speed="13.89" length="83.20" shape="300.00,11.20 216.80,11.20"/>
        <lane id="-E9_1" index="1" speed="13.89" length="83.20" shape="300.00,8.00 216.80,8.00"/>
        <lane id="-E9_2" index="2" speed="13.89" length="83.20" shape="300.00,4.80 216.80,4.80"/>
        <lane id="-E9_3" index="3" speed="13.89" length="83.20" shape="300.00,1.60 216.80,1.60"/>
    </edge>
    <edge id="E0" from="J0" to="J1" priority="-1">
        <lane id="E0_0" index="0" speed="13.89" length="166.40" shape="16.80,-11.20 183.20,-11.20"/>
        <lane id="E0_1" index="1" speed="13.89" length="166.40" shape="16.80,-8.00 183.20,-8.00"/>
        <lane id="E0_2" index="2" speed="13.89" length="166.40" shape="16.80,-4.80 183.20,-4.80"/>
        <lane id="E0_3" index="3" speed="13.89" length="166.40" shape="16.80,-1.60 183.20,-1.60"/>
    </edge>
    <edge id="E1" from="J1" to="J2" priority="-1">
        <lane id="E1_0" index="0" speed="13.89" length="166.40" shape="188.80,-16.80 188.80,-183.20"/>
        <lane id="E1_1" index="1" speed="13.89" length="166.40" shape="192.00,-16.80 192.00,-183.20"/>
        <lane id="E1_2" index="2" speed="13.89" length="166.40" shape="195.20,-16.80 195.20,-183.20"/>
        <lane id="E1_3" index="3" speed="13.89" length="166.40" shape="198.40,-16.80 198.40,-183.20"/>
    </edge>
    <edge id="E10" from="J2" to="J10" priority="-1">
        <lane id="E10_0" index="0" speed="13.89" length="83.20" shape="188.80,-216.80 188.80,-300.00"/>
        <lane id="E10_1" index="1" speed="13.89" length="83.20" shape="192.00,-216.80 192.00,-300.00"/>
        <lane id="E10_2" index="2" speed="13.89" length="83.20" shape="195.20,-216.80 195.20,-300.00"/>
        <lane id="E10_3" index="3" speed="13.89" length="83.20" shape="198.40,-216.80 198.40,-300.00"/>
    </edge>
    <edge id="E11" from="J2" to="J11" priority="-1">
        <lane id="E11_0" index="0" speed="13.89" length="83.20" shape="216.80,-211.20 300.00,-211.20"/>
        <lane id="E11_1" index="1" speed="13.89" length="83.20" shape="216.80,-208.00 300.00,-208.00"/>
        <lane id="E11_2" index="2" speed="13.89" length="83.20" shape="216.80,-204.80 300.00,-204.80"/>
        <lane id="E11_3" index="3" speed="13.89" length="83.20" shape="216.80,-201.60 300.00,-201.60"/>
    </edge>
    <edge id="E2" from="J2" to="J3" priority="-1">
        <lane id="E2_0" index="0" speed="13.89" length="166.40" shape="183.20,-188.80 16.80,-188.80"/>
        <lane id="E2_1" index="1" speed="13.89" length="166.40" shape="183.20,-192.00 16.80,-192.00"/>
        <lane id="E2_2" index="2" speed="13.89" length="166.40" shape="183.20,-195.20 16.80,-195.20"/>
        <lane id="E2_3" index="3" speed="13.89" length="166.40" shape="183.20,-198.40 16.80,-198.40"/>
    </edge>
    <edge id="E3" from="J3" to="J0" priority="-1">
        <lane id="E3_0" index="0" speed="13.89" length="166.40" shape="11.20,-183.20 11.20,-16.80"/>
        <lane id="E3_1" index="1" speed="13.89" length="166.40" shape="8.00,-183.20 8.00,-16.80"/>
        <lane id="E3_2" index="2" speed="13.89" length="166.40" shape="4.80,-183.20 4.80,-16.80"/>
        <lane id="E3_3" index="3" speed="13.89" length="166.40" shape="1.60,-183.20 1.60,-16.80"/>
    </edge>
    <edge id="E4" from="J0" to="J4" priority="-1">
        <lane id="E4_0" index="0" speed="13.89" length="83.20" shape="11.20,16.80 11.20,100.00"/>