<?xml version="1.0" encoding="UTF-8"?>

<!-- generated on 2022-09-09 14:22:38 by Eclipse SUMO netedit Version 1.14.1
<configuration xmlns:xsi="http://www.w3.org/2001/XMLSchema-instance" xsi:noNamespaceSchemaLocation="http://sumo.dlr.de/xsd/netconvertConfiguration.xsd">

    <input>
        <sumo-net-file value="D:\sumo\gap\well.net.xml"/>
    </input>

    <output>
        <output-file value="D:\sumo\gap\well.net.xml"/>
    </output>

    <processing>
        <geometry.min-radius.fix.railways value="false"/>
        <geometry.max-grade.fix value="false"/>
        <offset.disable-normalization value="true"/>
        <lefthand value="false"/>
    </processing>

    <junctions>
        <no-turnarounds value="true"/>
        <junctions.corner-detail value="5"/>
        <junctions.limit-turn-speed value="5.5"/>
        <rectangular-lane-cut value="false"/>
    </junctions>

    <pedestrian>
        <walkingareas value="false"/>
    </pedestrian>

</configuration>
-->

<net version="1.9" junctionCornerDetail="5" limitTurnSpeed="5.50" xmlns:xsi="http://www.w3.org/2001/XMLSchema-instance" xsi:noNamespaceSchemaLocation="http://sumo.dlr.de/xsd/net_file.xsd">

    <location netOffset="0.00,0.00" convBoundary="-100.00,-180.00,300.00,180.00" origBoundary="-10000000000.00,-10000000000.00,10000000000.00,10000000000.00" projParameter="!"/>

    <edge id=":J1_0" function="internal">
        <lane id=":J1_0_0" index="0" speed="6.51" length="9.03" shape="-8.00,-86.40 -8.35,-88.85 -9.40,-90.60 -11.15,-91.65 -13.60,-92.00"/>
    </edge>
    <edge id=":J1_1" function="internal">
        <lane id=":J1_1_0" index="0" speed="13.89" length="27.20" shape="-8.00,-86.40 -8.00,-113.60"/>
        <lane id=":J1_1_1" index="1" speed="13.89" length="27.20" shape="-4.80,-86.40 -4.80,-113.60"/>
    </edge>
    <edge id=":J1_3" function="internal">
        <lane id=":J1_3_0" index="0" speed="11.39" length="29.85" shape="-1.60,-86.40 -0.65,-95.85 2.20,-102.60 6.95,-106.65 13.60,-108.00"/>
        <lane id=":J1_3_1" index="1" speed="10.88" length="27.14" shape="-1.60,-86.40 -0.65,-94.45 2.20,-100.20 6.95,-103.65 13.60,-104.80"/>
        <lane id=":J1_3_2" index="2" speed="10.36" length="24.51" shape="-1.60,-86.40 -0.65,-93.05 2.20,-97.80 6.95,-100.65 13.60,-101.60"/>
    </edge>
    <edge id=":J1_6" function="internal">
        <lane id=":J1_6_0" index="0" speed="6.51" length="9.03" shape="13.60,-92.00 11.15,-91.65 9.40,-90.60 8.35,-88.85 8.00,-86.40"/>
    </edge>
    <edge id=":J1_7" function="internal">
        <lane id=":J1_7_0" index="0" speed="13.89" length="27.20" shape="13.60,-92.00 -13.60,-92.00"/>
        <lane id=":J1_7_1" index="1" speed="13.89" length="27.20" shape="13.60,-95.20 -13.60,-95.20"/>
    </edge>
    <edge id=":J1_9" function="internal">
        <lane id=":J1_9_0" index="0" speed="11.39" length="29.85" shape="13.60,-98.40 4.15,-99.35 -2.60,-102.20 -6.65,-106.95 -8.00,-113.60"/>
        <lane id=":J1_9_1" index="1" speed="10.88" length="27.14" shape="13.60,-98.40 5.55,-99.35 -0.20,-102.20 -3.65,-106.95 -4.80,-113.60"/>
        <lane id=":J1_9_2" index="2" speed="10.36" length="24.51" shape="13.60,-98.40 6.95,-99.35 2.20,-102.20 -0.65,-106.95 -1.60,-113.60"/>
    </edge>
    <edge id=":J1_12" function="internal">
        <lane id=":J1_12_0" index="0" speed="6.51" length="9.03" shape="8.00,-113.60 8.35,-111.15 9.40,-109.40 11.15,-108.35 13.60,-108.00"/>
    </edge>
    <edge id=":J1_13" function="internal">
        <lane id=":J1_13_0" index="0" speed="13.89" length="27.20" shape="8.00,-113.60 8.00,-86.40"/>
        <lane id=":J1_13_1" index="1" speed="13.89" length="27.20" shape="4.80,-113.60 4.80,-86.40"/>
    </edge>
    <edge id=":J1_15" function="internal">
        <lane id=":J1_15_0" index="0" speed="11.39" length="29.85" shape="1.60,-113.60 0.65,-104.15 -2.20,-97.40 -6.95,-93.35 -13.60,-92.00"/>
        <lane id=":J1_15_1" index="1" speed="10.88" length="27.14" shape="1.60,-113.60 0.65,-105.55 -2.20,-99.80 -6.95,-96.35 -13.60,-95.20"/>
        <lane id=":J1_15_2" index="2" speed="10.36" length="24.51" shape="1.60,-113.60 0.65,-106.95 -2.20,-102.20 -6.95,-99.35 -13.60,-98.40"/>
    </edge>
    <edge id=":J1_18" function="internal">
        <lane id=":J1_18_0" index="0" speed="6.51" length="9.03" shape="-13.60,-108.00 -11.15,-108.35 -9.40,-109.40 -8.35,-111.15 -8.00,-113.60"/>
    </edge>
    <edge id=":J1_19" function="internal">
        <lane id=":J1_19_0" index="0" speed="13.89" length="27.20" shape="-13.60,-108.00 13.60,-108.00"/>
        <lane id=":J1_19_1" index="1" speed="13.89" length="27.20" shape="-13.60,-104.80 13.60,-104.80"/>
    </edge>
    <edge id=":J1_21" function="internal">
        <lane id=":J1_21_0" index="0" speed="11.39" length="29.85" shape="-13.60,-101.60 -4.15,-100.65 2.60,-97.80 6.65,-93.05 8.00,-86.40"/>
        <lane id=":J1_21_1" index="1" speed="10.88" length="27.14" shape="-13.60,-101.60 -5.55,-100.65 0.20,-97.80 3.65,-93.05 4.80,-86.40"/>
        <lane id=":J1_21_2" index="2" speed="10.36" length="24.51" shape="-13.60,-101.60 -6.95,-100.65 -2.20,-97.80 0.65,-93.05 1.60,-86.40"/>
    </edge>
    <edge id=":J2_0" function="internal">
        <lane id=":J2_0_0" index="0" speed="6.51" length="9.03" shape="-8.00,113.60 -8.35,111.15 -9.40,109.40 -11.15,108.35 -13.60,108.00"/>
    </edge>
    <edge id=":J2_1" function="internal">
        <lane id=":J2_1_0" index="0" speed="13.89" length="27.20" shape="-8.00,113.60 -8.00,86.40"/>
        <lane id=":J2_1_1" index="1" speed="13.89" length="27.20" shape="-4.80,113.60 -4.80,86.40"/>
    </edge>
    <edge id=":J2_3" function="internal">
        <lane id=":J2_3_0" index="0" speed="11.39" length="29.85" shape="-1.60,113.60 -0.65,104.15 2.20,97.40 6.95,93.35 13.60,92.00"/>
        <lane id=":J2_3_1" index="1" speed="10.88" length="27.14" shape="-1.60,113.60 -0.65,105.55 2.20,99.80 6.95,96.35 13.60,95.20"/>
        <lane id=":J2_3_2" index="2" speed="10.36" length="24.51" shape="-1.60,113.60 -0.65,106.95 2.20,102.20 6.95,99.35 13.60,98.40"/>
    </edge>
    <edge id=":J2_6" function="internal">
        <lane id=":J2_6_0" index="0" speed="6.51" length="9.03" shape="13.60,108.00 11.15,108.35 9.40,109.40 8.35,111.15 8.00,113.60"/>
    </edge>
    <edge id=":J2_7" function="internal">
        <lane id=":J2_7_0" index="0" speed="13.89" length="27.20" shape="13.60,108.00 -13.60,108.00"/>
        <lane id=":J2_7_1" index="1" speed="13.89" length="27.20" shape="13.60,104.80 -13.60,104.80"/>
    </edge>
    <edge id=":J2_9" function="internal">
        <lane id=":J2_9_0" index="0" speed="11.39" length="29.85" shape="13.60,101.60 4.15,100.65 -2.60,97.80 -6.65,93.05 -8.00,86.40"/>
        <lane id=":J2_9_1" index="1" speed="10.88" length="27.14" shape="13.60,101.60 5.55,100.65 -0.20,97.80 -3.65,93.05 -4.80,86.40"/>
        <lane id=":J2_9_2" index="2" speed="10.36" length="24.51" shape="13.60,101.60 6.95,100.65 2.20,97.80 -0.65,93.05 -1.60,86.40"/>
    </edge>
    <edge id=":J2_12" function="internal">
        <lane id=":J2_12_0" index="0" speed="6.51" length="9.03" shape="8.00,86.40 8.35,88.85 9.40,90.60 11.15,91.65 13.60,92.00"/>
    </edge>
    <edge id=":J2_13" function="internal">
        <lane id=":J2_13_0" index="0" speed="13.89" length="27.20" shape="8.00,86.40 8.00,113.60"/>
        <lane id=":J2_13_1" index="1" speed="13.89" length="27.20" shape="4.80,86.40 4.80,113.60"/>
    </edge>
    <edge id=":J2_15" function="internal">
        <lane id=":J2_15_0" index="0" speed="11.39" length="29.85" shape="1.60,86.40 0.65,95.85 -2.20,102.60 -6.95,106.65 -13.60,108.00"/>
        <lane id=":J2_15_1" index="1" speed="10.88" length="27.14" shape="1.60,86.40 0.65,94.45 -2.20,100.20 -6.95,103.65 -13.60,104.80"/>
        <lane id=":J2_15_2" index="2" speed="10.36" length="24.51" shape="1.60,86.40 0.65,93.05 -2.20,97.80 -6.95,100.65 -13.60,101.60"/>
    </edge>
    <edge id=":J2_18" function="internal">
        <lane id=":J2_18_0" index="0" speed="6.51" length="9.03" shape="-13.60,92.00 -11.15,91.65 -9.40,90.60 -8.35,88.85 -8.00,86.40"/>
    </edge>
    <edge id=":J2_19" function="internal">
        <lane id=":J2_19_0" index="0" speed="13.89" length="27.20" shape="-13.60,92.00 13.60,92.00"/>
        <lane id=":J2_19_1" index="1" speed="13.89" length="27.20" shape="-13.60,95.20 13.60,95.20"/>
    </edge>
    <edge id=":J2_21" function="internal">
        <lane id=":J2_21_0" index="0" speed="11.39" length="29.85" shape="-13.60,98.40 -4.15,99.35 2.60,102.20 6.65,106.95 8.00,113.60"/>
        <lane id=":J2_21_1" index="1" speed="10.88" length="27.14" shape="-13.60,98.40 -5.55,99.35 0.20,102.20 3.65,106.95 4.80,113.60"/>
        <lane id=":J2_21_2" index="2" speed="10.36" length="24.51" shape="-13.60,98.40 -6.95,99.35 -2.20,102.20 0.65,106.95 1.60,113.60"/>
    </edge>
    <edge id=":J3_0" function="internal">
        <lane id=":J3_0_0" index="0" speed="6.51" length="9.03" shape="192.00,-86.40 191.65,-88.85 190.60,-90.60 188.85,-91.65 186.40,-92.00"/>
    </edge>
    <edge id=":J3_1" function="internal">
        <lane id=":J3_1_0" index="0" speed="13.89" length="27.20" shape="192.00,-86.40 192.00,-113.60"/>
        <lane id=":J3_1_1" index="1" speed="13.89" length="27.20" shape="195.20,-86.40 195.20,-113.60"/>
    </edge>
    <edge id=":J3_3" function="internal">
        <lane id=":J3_3_0" index="0" speed="11.39" length="29.85" shape="198.40,-86.40 199.35,-95.85 202.20,-102.60 206.95,-106.65 213.60,-108.00"/>
        <lane id=":J3_3_1" index="1" speed="10.88" length="27.14" shape="198.40,-86.40 199.35,-94.45 202.20,-100.20 206.95,-103.65 213.60,-104.80"/>
        <lane id=":J3_3_2" index="2" speed="10.36" length="24.51" shape="198.40,-86.40 199.35,-93.05 202.20,-97.80 206.95,-100.65 213.60,-101.60"/>
    </edge>
    <edge id=":J3_6" function="internal">
        <lane id=":J3_6_0" index="0" speed="6.51" length="9.03" shape="213.60,-92.00 211.15,-91.65 209.40,-90.60 208.35,-88.85 208.00,-86.40"/>
    </edge>
    <edge id=":J3_7" function="internal">
        <lane id=":J3_7_0" index="0" speed="13.89" length="27.20" shape="213.60,-92.00 186.40,-92.00"/>
        <lane id=":J3_7_1" index="1" speed="13.89" length="27.20" shape="213.60,-95.20 186.40,-95.20"/>
    </edge>
    <edge id=":J3_9" function="internal">
        <lane id=":J3_9_0" index="0" speed="11.39" length="29.85" shape="213.60,-98.40 204.15,-99.35 197.40,-102.20 193.35,-106.95 192.00,-113.60"/>
        <lane id=":J3_9_1" index="1" speed="10.88" length="27.14" shape="213.60,-98.40 205.55,-99.35 199.80,-102.20 196.35,-106.95 195.20,-113.60"/>
        <lane id=":J3_9_2" index="2" speed="10.36" length="24.51" shape="213.60,-98.40 206.95,-99.35 202.20,-102.20 199.35,-106.95 198.40,-113.60"/>
    </edge>
    <edge id=":J3_12" function="internal">
        <lane id=":J3_12_0" index="0" speed="6.51" length="9.03" shape="208.00,-113.60 208.35,-111.15 209.40,-109.40 211.15,-108.35 213.60,-108.00"/>
    </edge>
    <edge id=":J3_13" function="internal">
        <lane id=":J3_13_0" index="0" speed="13.89" length="27.20" shape="208.00,-113.60 208.00,-86.40"/>
        <lane id=":J3_13_1" index="1" speed="13.89" length="27.20" shape="204.80,-113.60 204.80,-86.40"/>
    </edge>
    <edge id=":J3_15" function="internal">
        <lane id=":J3_15_0" index="0" speed="11.39" length="29.85" shape="201.60,-113.60 200.65,-104.15 197.80,-97.40 193.05,-93.35 186.40,-92.00"/>
        <lane id=":J3_15_1" index="1" speed="10.88" length="27.14" shape="201.60,-113.60 200.65,-105.55 197.80,-99.80 193.05,-96.35 186.40,-95.20"/>
        <lane id=":J3_15_2" index="2" speed="10.36" length="24.51" shape="201.60,-113.60 200.65,-106.95 197.80,-102.20 193.05,-99.35 186.40,-98.40"/>
    </edge>
    <edge id=":J3_18" function="internal">
        <lane id=":J3_18_0" index="0" speed="6.51" length="9.03" shape="186.40,-108.00 188.85,-108.35 190.60,-109.40 191.65,-111.15 192.00,-113.60"/>
    </edge>
    <edge id=":J3_19" function="internal">
        <lane id=":J3_19_0" index="0" speed="13.89" length="27.20" shape="186.40,-108.00 213.60,-108.00"/>
        <lane id=":J3_19_1" index="1" speed="13.89" length="27.20" shape="186.40,-104.80 213.60,-104.80"/>
    </edge>
    <edge id=":J3_21" function="internal">
        <lane id=":J3_21_0" index="0" speed="11.39" length="29.85" shape="186.40,-101.60 195.85,-100.65 202.60,-97.80 206.65,-93.05 208.00,-86.40"/>
        <lane id=":J3_21_1" index="1" speed="10.88" length="27.14" shape="186.40,-101.60 194.45,-100.65 200.20,-97.80 203.65,-93.05 204.80,-86.40"/>
        <lane id=":J3_21_2" index="2" speed="10.36" length="24.51" shape="186.40,-101.60 193.05,-100.65 197.80,-97.80 200.65,-93.05 201.60,-86.40"/>
    </edge>
    <edge id=":J5_0" function="internal">
        <lane id=":J5_0_0" index="0" speed="6.51" length="9.03" shape="192.00,113.60 191.65,111.15 190.60,109.40 188.85,108.35 186.40,108.00"/>
    </edge>
    <edge id=":J5_1" function="internal">
        <lane id=":J5_1_0" index="0" speed="13.89" length="27.20" shape="192.00,113.60 192.00,86.40"/>
        <lane id=":J5_1_1" index="1" speed="13.89" length="27.20" shape="195.20,113.60 195.20,86.40"/>
    </edge>
    <edge id=":J5_3" function="internal">
        <lane id=":J5_3_0" index="0" speed="11.39" length="29.85" shape="198.40,113.60 199.35,104.15 202.20,97.40 206.95,93.35 213.60,92.00"/>
        <lane id=":J5_3_1" index="1" speed="10.88" length="27.14" shape="198.40,113.60 199.35,105.55 202.20,99.80 206.95,96.35 213.60,95.20"/>
        <lane id=":J5_3_2" index="2" speed="10.36" length="24.51" shape="198.40,113.60 199.35,106.95 202.20,102.20 206.95,99.35 213.60,98.40"/>
    </edge>
    <edge id=":J5_6" function="internal">
        <lane id=":J5_6_0" index="0" speed="6.51" length="9.03" shape="213.60,108.00 211.15,108.35 209.40,109.40 208.35,111.15 208.00,113.60"/>
    </edge>
    <edge id=":J5_7" function="internal">
        <lane id=":J5_7_0" index="0" speed="13.89" length="27.20" shape="213.60,108.00 186.40,108.00"/>
        <lane id=":J5_7_1" index="1" speed="13.89" length="27.20" shape="213.60,104.80 186.40,104.80"/>
    </edge>
    <edge id=":J5_9" function="internal">
        <lane id=":J5_9_0" index="0" speed="11.39" length="29.85" shape="213.60,101.60 204.15,100.65 197.40,97.80 193.35,93.05 192.00,86.40"/>
        <lane id=":J5_9_1" index="1" speed="10.88" length="27.14" shape="213.60,101.60 205.55,100.65 199.80,97.80 196.35,93.05 195.20,86.40"/>
        <lane id=":J5_9_2" index="2" speed="10.36" length="24.51" shape="213.60,101.60 206.95,100.65 202.20,97.80 199.35,93.05 198.40,86.40"/>
    </edge>
    <edge id=":J5_12" function="internal">
        <lane id=":J5_12_0" index="0" speed="6.51" length="9.03" shape="208.00,86.40 208.35,88.85 209.40,90.60 211.15,91.65 213.60,92.00"/>
    </edge>
    <edge id=":J5_13" function="internal">
        <lane id=":J5_13_0" index="0" speed="13.89" length="27.20" shape="208.00,86.40 208.00,113.60"/>
        <lane id=":J5_13_1" index="1" speed="13.89" length="27.20" shape="204.80,86.40 204.80,113.60"/>
    </edge>
    <edge id=":J5_15" function="internal">
        <lane id=":J5_15_0" index="0" speed="11.39" length="29.85" shape="201.60,86.40 200.65,95.85 197.80,102.60 193.05,106.65 186.40,108.00"/>
        <lane id=":J5_15_1" index="1" speed="10.88" length="27.14" shape="201.60,86.40 200.65,94.45 197.80,100.20 193.05,103.65 186.40,104.80"/>
        <lane id=":J5_15_2" index="2" speed="10.36" length="24.51" shape="201.60,86.40 200.65,93.05 197.80,97.80 193.05,100.65 186.40,101.60"/>
    </edge>
    <edge id=":J5_18" function="internal">
        <lane id=":J5_18_0" index="0" speed="6.51" length="9.03" shape="186.40,92.00 188.85,91.65 190.60,90.60 191.65,88.85 192.00,86.40"/>
    </edge>
    <edge id=":J5_19" function="internal">
        <lane id=":J5_19_0" index="0" speed="13.89" length="27.20" shape="186.40,92.00 213.60,92.00"/>
        <lane id=":J5_19_1" index="1" speed="13.89" length="27.20" shape="186.40,95.20 213.60,95.20"/>
    </edge>
    <edge id=":J5_21" function="internal">
        <lane id=":J5_21_0" index="0" speed="11.39" length="29.85" shape="186.40,98.40 195.85,99.35 202.60,102.20 206.65,106.95 208.00,113.60"/>
        <lane id=":J5_21_1" index="1" speed="10.88" length="27.14" shape="186.40,98.40 194.45,99.35 200.20,102.20 203.65,106.95 204.80,113.60"/>
        <lane id=":J5_21_2" index="2" speed="10.36" length="24.51" shape="186.40,98.40 193.05,99.35 197.80,102.20 200.65,106.95 201.60,113.60"/>
    </edge>

    <edge id="-E0" from="J1" to="J0" priority="-1">
        <lane id="-E0_0" index="0" speed="13.89" length="86.40" shape="-13.60,-92.00 -100.00,-92.00"/>
        <lane id="-E0_1" index="1" speed="13.89" length="86.40" shape="-13.60,-95.20 -100.00,-95.20"/>
        <lane id="-E0_2" index="2" speed="13.89" length="86.40" shape="-13.60,-98.40 -100.00,-98.40"/>
    </edge>
    <edge id="-E1" from="J2" to="J1" priority="-1">
        <lane id="-E1_0" index="0" speed="13.89" length="172.80" shape="-8.00,86.40 -8.00,-86.40"/>
        <lane id="-E1_1" index="1" speed="13.89" length="172.80" shape="-4.80,86.40 -4.80,-86.40"/>
        <lane id="-E1_2" index="2" speed="13.89" length="172.80" shape="-1.60,86.40 -1.60,-86.40"/>
    </edge>
    <edge id="-E10" from="J10" to="J5" priority="-1">
        <lane id="-E10_0" index="0" speed="13.89" length="66.40" shape="192.00,180.00 192.00,113.60"/>
        <lane id="-E10_1" index="1" speed="13.89" length="66.40" shape="195.20,180.00 195.20,113.60"/>
        <lane id="-E10_2" index="2" speed="13.89" length="66.40" shape="198.40,180.00 198.40,113.60"/>
    </edge>
    <edge id="-E11" from="J11" to="J5" priority="-1">
        <lane id="-E11_0" index="0" speed="13.89" length="86.40" shape="300.00,108.00 213.60,108.00"/>
        <lane id="-E11_1" index="1" speed="13.89" length="86.40" shape="300.00,104.80 213.60,104.80"/>
        <lane id="-E11_2" index="2" speed="13.89" length="86.40" shape="300.00,101.60 213.60,101.60"/>
    </edge>
    <edge id="-E2" from="J3" to="J1" priority="-1">
        <lane id="-E2_0" index="0" speed="13.89" length="172.80" shape="186.40,-92.00 13.60,-92.00"/>
        <lane id="-E2_1" index="1" speed="13.89" length="172.80" shape="186.40,-95.20 13.60,-95.20"/>
        <lane id="-E2_2" index="2" speed="13.89" length="172.80" shape="186.40,-98.40 13.60,-98.40"/>
    </edge>
    <edge id="-E3" from="J4" to="J1" priority="-1">
        <lane id="-E3_0" index="0" speed="13.89" length="66.40" shape="8.00,-180.00 8.00,-113.60"/>
        <lane id="-E3_1" index="1" speed="13.89" length="66.40" shape="4.80,-180.00 4.80,-113.60"/>
        <lane id="-E3_2" index="2" speed="13.89" length="66.40" shape="1.60,-180.00 1.60,-113.60"/>
    </edge>
    <edge id="-E4" from="J5" to="J3" priority="-1">
        <lane id="-E4_0" index="0" speed="13.89" length="172.80" shape="192.00,86.40 192.00,-86.40"/>
        <lane id="-E4_1" index="1" speed="13.89" length="172.80" shape="195.20,86.40 195.20,-86.40"/>
        <lane id="-E4_2" index="2" speed="13.89" length="172.80" shape="198.40,86.40 198.40,-86.40"/>
    </edge>
    <edge id="-E5" from="J6" to="J3" priority="-1">
        <lane id="-E5_0" index="0" speed="13.89" length="86.40" shape="300.00,-92.00 213.60,-92.00"/>
        <lane id="-E5_1" index="1" speed="13.89" length="86.40" shape="300.00,-95.20 213.60,-95.20"/>
        <lane id="-E5_2" index="2" speed="13.89" length="86.40" shape="300.00,-98.40 213.60,-98.40"/>
    </edge>
    <edge id="-E6" from="J7" to="J3" priority="-1">
        <lane id="-E6_0" index="0" speed="13.89" length="66.40" shape="208.00,-180.00 208.00,-113.60"/>
        <lane id="-E6_1" index="1" speed="13.89" length="66.40" shape="204.80,-180.00 204.80,-113.60"/>
        <lane id="-E6_2" index="2" speed="13.89" length="66.40" shape="201.60,-180.00 201.60,-113.60"/>
    </edge>
    <edge id="-E7" from="J5" to="J2" priority="-1">
        <lane id="-E7_0" index="0" speed="13.89" length="172.80" shape="186.40,108.00 13.60,108.00"/>
        <lane id="-E7_1" index="1" speed="13.89" length="172.80" shape="186.40,104.80 13.60,104.80"/>
        <lane id="-E7_2" index="2" speed="13.89" length="172.80" shape="186.40,101.60 13.60,101.60"/>
    </edge>
    <edge id="-E8" from="J8" to="J2" priority="-1">
        <lane id="-E8_0" index="0" speed="13.89" length="86.40" shape="-100.00,92.00 -13.60,92.00"/>
        <lane id="-E8_1" index="1" speed="13.89" length="86.40" shape="-100.00,95.20 -13.60,95.20"/>
        <lane id="-E8_2" index="2" speed="13.89" length="86.40" shape="-100.00,98.40 -13.60,98.40"/>
    </edge>
    <edge id="-E9" from="J9" to="J2" priority="-1">
        <lane id="-E9_0" index="0" speed="13.89" length="66.40" shape="-8.00,180.00 -8.00,113.60"/>
        <lane id="-E9_1" index="1" speed="13.89" length="66.40" shape="-4.80,180.00 -4.80,113.60"/>
        <lane id="-E9_2" index="2" speed="13.89" length="66.40" shape="-1.60,180.00 -1.60,113.60"/>
    </edge>
    <edge id="E0" from="J0" to="J1" priority="-1">
        <lane id="E0_0" index="0" speed="13.89" length="86.40" shape="-100.00,-108.00 -13.60,-108.00"/>
        <lane id="E0_1" index="1" speed="13.89" length="86.40" shape="-100.00,-104.80 -13.60,-104.80"/>
        <lane id="E0_2" index="2" speed="13.89" length="86.40" shape="-100.00,-101.60 -13.60,-101.60"/>
    </edge>
    <edge id="E1" from="J1" to="J2" priority="-1">
        <lane id="E1_0" index="0" speed="13.89" length="172.80" shape="8.00,-86.40 8.00,86.40"/>
        <lane id="E1_1" index="1" speed="13.89" length="172.80" shape="4.80,-86.40 4.80,86.40"/>
        <lane id="E1_2" index="2" speed="13.89" length="172.80" shape="1.60,-86.40 1.60,86.40"/>
    </edge>
    <edge id="E10" from="J5" to="J10" priority="-1">
        <lane id="E10_0" index="0" speed="13.89" length="66.40" shape="208.00,113.60 208.00,180.00"/>
        <lane id="E10_1" index="1" speed="13.89" length="66.40" shape="204.80,113.60 204.80,180.00"/>
        <lane id="E10_2" index="2" speed="13.89" length="66.40" shape="201.60,113.60 201.60,180.00"/>
    </edge>
    <edge id="E11" from="J5" to="J11" priority="-1">
        <lane id="E11_0" index="0" speed="13.89" length="86.40" shape="213.60,92.00 300.00,92.00"/>
        <lane id="E11_1" index="1" speed="13.89" length="86.40" shape="213.60,95.20 300.00,95.20"/>
        <lane id="E11_2" index="2" speed="13.89" length="86.40" shape="213.60,98.40 300.00,98.40"/>
    </edge>
    <edge id="E2" from="J1" to="J3" priority="-1">
        <lane id="E2_0" index="0" speed="13.89" length="172.80" shape="13.60,-108.00 186.40,-108.00"/>
        <lane id="E2_1" index="1" speed="13.89" length="172.80" shape="13.60,-104.80 186.40,-104.80"/>
        <lane id="E2_2" index="2" speed="13.89" length="172.80" shape="13.60,-101.60 186.40,-101.60"/>
    </edge>
    <edge id="E3" from="J1" to="J4" priority="-1">
        <lane id="E3_0" index="0" speed="13.89" length="66.40" shape="-8.00,-113.60 -8.00,-180.00"/>
        <lane id="E3_1" index="1" speed="13.89" length="66.40" shape="-4.80,-113.60 -4.80,-180.00"/>
        <lane id="E3_2" index="2" speed="13.89" length="66.40" shape="-1.60,-113.60 -1.60,-180.00"/>
    </edge>
    <edge id="E4" from="J3" to="J5" priority="-1">
        <lane id="E4_0" index="0" speed="13.89" length="172.80" shape="208.00,-86.40 208.00,86.40"/>
        <lane id="E4_1" index="1" speed="13.89" length="172.80" shape="204.80,-86.40 204.80,86.40"/>
        <lane id="E4_2" index="2" speed="13.89" length="172.80" shape="201.60,-86.40 201.60,86.40"/>
    </edge>
    <edge id="E5" from="J3" to="J6" priority="-1">
        <lane id="E5_0" index="0" speed="13.89" length="86.40" shape="213.60,-108.00 300.00,-108.00"/>
        <lane id="E5_1" index="1" speed="13.89" length="86.40" shape="213.60,-104.80 300.00,-104.80"/>
        <lane id="E5_2" index="2" speed="13.89" length="86.40" shape="213.60,-101.60 300.00,-101.60"/>
    </edge>
    <edge id="E6" from="J3" to="J7" priority="-1">
        <lane id="E6_0" index="0" speed="13.89" length="66.40" shape="192.00,-113.60 192.00,-180.00"/>
        <lane id="E6_1" index="1" speed="13.89" length="66.40" shape="195.20,-113.60 195.20,-180.00"/>
        <lane id="E6_2" index="2" speed="13.89" length="66.40" shape="198.40,-113.60 198.40,-180.00"/>
    </edge>
    <edge id="E7" from="J2" to="J5" priority="-1">
        <lane id="E7_0" index="0" speed="13.89" length="172.80" shape="13.60,92.00 186.40,92.00"/>
        <lane id="E7_1" index="1" speed="13.89" length="172.80" shape="13.60,95.20 186.40,95.20"/>
        <lane id="E7_2" index="2" speed="13.89" length="172.80" shape="13.60,98.40 186.40,98.40"/>
    </edge>
    <edge id="E8" from="J2" to="J8" priority="-1">
        <lane id="E8_0" index="0" speed="13.89" length="86.40" shape="-13.60,108.00 -100.00,108.00"/>
        <lane id="E8_1" index="1" speed="13.89" length="86.40" shape="-13.60,104.80 -100.00,104.80"/>
        <lane id="E8_2" index="2" speed="13.89" length="86.40" shape="-13.60,101.60 -100.00,101.60"/>
    </edge>
    <edge id="E9" from="J2" to="J9" priority="-1">
        <lane id="E9_0" index="0" speed="13.89" length="66.40" shape="8.00,113.60 8.00,180.00"/>
        <lane id="E9_1" index="1" speed="13.89" length="66.40" shape="4.80,113.60 4.80,180.00"/>
        <lane id="E9_2" index="2" speed="13.89" length="66.40" shape="1.60,113.60 1.60,180.00"/>
    </edge>

    <tlLogic id="J1" type="static" programID="0" offset="0">
        <phase duration="100" state="rrrrrrrrrrrrGGGGGGGrrrrr"/>
        <phase duration="3"  state="rrrrrrrrrrrryyyyyyyrrrrr"/>
        <phase duration="100" state="GrrrrrrrrrrrrrrrrrGGGGGG"/>
        <phase duration="3"  state="yrrrrrrrrrrrrrrrrryyyyyy"/>
        <phase duration="100" state="GGGGGGGrrrrrrrrrrrrrrrrr"/>
        <phase duration="3"  state="yyyyyyyrrrrrrrrrrrrrrrrr"/>
        <phase duration="100" state="rrrrrrGGGGGGGrrrrrrrrrrr"/>
        <phase duration="3"  state="rrrrrryyyyyyyrrrrrrrrrrr"/>
    </tlLogic>
    <tlLogic id="J2" type="static" programID="0" offset="0">
        <phase duration="100" state="rrrrrrrrrrrrGGGGGGGrrrrr"/>
        <phase duration="3"  state="rrrrrrrrrrrryyyyyyyrrrrr"/>
        <phase duration="100" state="GrrrrrrrrrrrrrrrrrGGGGGG"/>
        <phase duration="3"  state="yrrrrrrrrrrrrrrrrryyyyyy"/>
        <phase duration="100" state="GGGGGGGrrrrrrrrrrrrrrrrr"/>
        <phase duration="3"  state="yyyyyyyrrrrrrrrrrrrrrrrr"/>
        <phase duration="100" state="rrrrrrGGGGGGGrrrrrrrrrrr"/>
        <phase duration="2"  state="rrrrrryyyyyyyrrrrrrrrrrr"/>
    </tlLogic>
    <tlLogic id="J2" type="static" programID="1" offset="0">
        <phase duration="100" state="rrrrrrrrrrrrGGGGGGGrrrrr"/>
        <phase duration="3"  state="rrrrrrrrrrrryyyyyyyrrrrr"/>
        <phase duration="100" state="GrrrrrrrrrrrrrrrrrGGGGGG"/>
        <phase duration="3"  state="yrrrrrrrrrrrrrrrrryyyyyy"/>
        <phase duration="100" state="GGGGGGGrrrrrrrrrrrrrrrrr"/>
        <phase duration="3"  state="yyyyyyyrrrrrrrrrrrrrrrrr"/>
        <phase duration="100" state="rrrrrrGGGGGGGrrrrrrrrrrr"/>
        <phase duration="3"  state="rrrrrryyyyyyyrrrrrrrrrrr"/>
    </tlLogic>
    <tlLogic id="J3" type="static" programID="0" offset="0">
        <phase duration="100" state="rrrrrrrrrrrrGGGGGGGrrrrr"/>
        <phase duration="3"  state="rrrrrrrrrrrryyyyyyyrrrrr"/>
        <phase duration="100" state="GrrrrrrrrrrrrrrrrrGGGGGG"/>
        <phase duration="3"  state="yrrrrrrrrrrrrrrrrryyyyyy"/>
        <phase duration="100" state="GGGGGGGrrrrrrrrrrrrrrrrr"/>
        <phase duration="3"  state="yyyyyyyrrrrrrrrrrrrrrrrr"/>
        <phase duration="100" state="rrrrrrGGGGGGGrrrrrrrrrrr"/>
        <phase duration="3"  state="rrrrrryyyyyyyrrrrrrrrrrr"/>
    </tlLogic>
    <tlLogic id="J5" type="static" programID="0" offset="0">
        <phase duration="100" state="rrrrrrrrrrrrGGGGGGGrrrrr"/>
        <phase duration="3"  state="rrrrrrrrrrrryyyyyyyrrrrr"/>
        <phase duration="100" state="GrrrrrrrrrrrrrrrrrGGGGGG"/>
        <phase duration="3"  state="yrrrrrrrrrrrrrrrrryyyyyy"/>
        <phase duration="100" state="GGGGGGGrrrrrrrrrrrrrrrrr"/>
        <phase duration="3"  state="yyyyyyyrrrrrrrrrrrrrrrrr"/>
        <phase duration="100" state="rrrrrrGGGGGGGrrrrrrrrrrr"/>
        <phase duration="3"  state="rrrrrryyyyyyyrrrrrrrrrrr"/>
    </tlLogic>

    <junction id="J0" type="dead_end" x="-100.00" y="-100.00" incLanes="-E0_0 -E0_1 -E0_2" intLanes="" shape="-100.00,-100.00 -100.00,-90.40 -100.00,-100.00"/>
    <junction id="J1" type="traffic_light" x="0.00" y="-100.00" incLanes="-E1_0 -E1_1 -E1_2 -E2_0 -E2_1 -E2_2 -E3_0 -E3_1 -E3_2 E0_0 E0_1 E0_2" intLanes=":J1_0_0 :J1_1_0 :J1_1_1 :J1_3_0 :J1_3_1 :J1_3_2 :J1_6_0 :J1_7_0 :J1_7_1 :J1_9_0 :J1_9_1 :J1_9_2 :J1_12_0 :J1_13_0 :J1_13_1 :J1_15_0 :J1_15_1 :J1_15_2 :J1_18_0 :J1_19_0 :J1_19_1 :J1_21_0 :J1_21_1 :J1_21_2" shape="-9.60,-86.40 9.60,-86.40 10.04,-88.62 10.60,-89.40 11.38,-89.96 12.38,-90.29 13.60,-90.40 13.60,-109.60 11.38,-110.04 10.60,-110.60 10.04,-111.38 9.71,-112.38 9.60,-113.60 -9.60,-113.60 -10.04,-111.38 -10.60,-110.60 -11.38,-110.04 -12.38,-109.71 -13.60,-109.60 -13.60,-90.40 -11.38,-89.96 -10.60,-89.40 -10.04,-88.62 -9.71,-87.62">
        <request index="0"  response="000000000000000000000000" foes="000000111000000110000000" cont="0"/>
        <request index="1"  response="000000000000000000000000" foes="111111111000111110000000" cont="0"/>
        <request index="2"  response="000000000000000000000000" foes="111111111000111110000000" cont="0"/>
        <request index="3"  response="000000001111000000000000" foes="111110001111111110000000" cont="0"/>
        <request index="4"  response="000000000111000000000000" foes="111110000111111110000000" cont="0"/>
        <request index="5"  response="000000000111000000000000" foes="111110000111111110000000" cont="0"/>
        <request index="6"  response="000000000110000000000000" foes="111000000110000000000000" cont="0"/>
        <request index="7"  response="000000111110000000111111" foes="111000111110000000111111" cont="0"/>